441305
  -OEChem-08262413363D

 76 78  0     1  0  0  0  0  0999 V2000
   -1.2655   -0.5476    0.2031 O   0  0  0  0  0  0  0  0  0  0  0  0
    1.5774   -0.3800    0.0078 O   0  0  0  0  0  0  0  0  0  0  0  0
    0.4672   -3.1085    2.1367 O   0  0  0  0  0  0  0  0  0  0  0  0
   -3.0673    0.2600    1.4715 O   0  0  0  0  0  0  0  0  0  0  0  0
    3.6879    0.4728    0.6327 O   0  0  0  0  0  0  0  0  0  0  0  0
   -2.1123    1.8908   -0.7760 O   0  0  0  0  0  0  0  0  0  0  0  0
   -6.3231    1.6941    0.5338 O   0  0  0  0  0  0  0  0  0  0  0  0
   -1.1809   -4.2223   -0.1316 N   0  0  0  0  0  0  0  0  0  0  0  0
    1.8563   -4.0462   -0.3427 N   0  0  0  0  0  0  0  0  0  0  0  0
   -5.2683    0.1446   -1.4715 N   0  0  0  0  0  0  0  0  0  0  0  0
    0.2932    1.9008    1.1624 N   0  0  0  0  0  0  0  0  0  0  0  0
    6.1684    1.7780    0.1900 N   0  0  0  0  0  0  0  0  0  0  0  0
   -1.0119   -1.8823    0.6475 C   0  0  2  0  0  0  0  0  0  0  0  0
    1.5435   -1.7313    0.4722 C   0  0  1  0  0  0  0  0  0  0  0  0
    0.3294   -1.8968    1.4015 C   0  0  2  0  0  0  0  0  0  0  0  0
   -1.0526   -2.8304   -0.5661 C   0  0  1  0  0  0  0  0  0  0  0  0
    1.5293   -2.6776   -0.7436 C   0  0  2  0  0  0  0  0  0  0  0  0
    0.1750   -2.6254   -1.4739 C   0  0  0  0  0  0  0  0  0  0  0  0
   -2.6614   -0.2599    0.2049 C   0  0  1  0  0  0  0  0  0  0  0  0
   -4.4246    1.2093   -0.9060 C   0  0  2  0  0  0  0  0  0  0  0  0
   -2.9553    0.7458   -0.9174 C   0  0  1  0  0  0  0  0  0  0  0  0
    2.2826    0.4553    0.9109 C   0  0  1  0  0  0  0  0  0  0  0  0
   -4.8959    1.5784    0.5287 C   0  0  2  0  0  0  0  0  0  0  0  0
    1.7263    1.8862    0.8775 C   0  0  1  0  0  0  0  0  0  0  0  0
    4.0093    1.0172   -0.6526 C   0  0  1  0  0  0  0  0  0  0  0  0
    2.0231    2.5515   -0.4687 C   0  0  0  0  0  0  0  0  0  0  0  0
   -4.4738    0.4960    1.5322 C   0  0  0  0  0  0  0  0  0  0  0  0
    3.5169    2.4610   -0.7704 C   0  0  0  0  0  0  0  0  0  0  0  0
    5.5211    0.9414   -0.8207 C   0  0  2  0  0  0  0  0  0  0  0  0
   -4.3504    2.9462    0.9708 C   0  0  0  0  0  0  0  0  0  0  0  0
    6.0167   -0.4984   -0.7072 C   0  0  0  0  0  0  0  0  0  0  0  0
   -5.2043    0.1609   -2.9223 C   0  0  0  0  0  0  0  0  0  0  0  0
    7.5241    2.1162   -0.2137 C   0  0  0  0  0  0  0  0  0  0  0  0
   -1.7877   -2.1802    1.3687 H   0  0  0  0  0  0  0  0  0  0  0  0
    2.4685   -1.9422    1.0293 H   0  0  0  0  0  0  0  0  0  0  0  0
    0.3043   -1.0830    2.1351 H   0  0  0  0  0  0  0  0  0  0  0  0
   -1.9350   -2.6052   -1.1773 H   0  0  0  0  0  0  0  0  0  0  0  0
    2.2976   -2.3465   -1.4541 H   0  0  0  0  0  0  0  0  0  0  0  0
    0.1613   -3.3548   -2.2950 H   0  0  0  0  0  0  0  0  0  0  0  0
    0.0836   -1.6429   -1.9573 H   0  0  0  0  0  0  0  0  0  0  0  0
   -3.2379   -1.1732    0.0050 H   0  0  0  0  0  0  0  0  0  0  0  0
   -4.5436    2.1129   -1.5201 H   0  0  0  0  0  0  0  0  0  0  0  0
   -2.6608    0.2987   -1.8723 H   0  0  0  0  0  0  0  0  0  0  0  0
    2.1814    0.0915    1.9413 H   0  0  0  0  0  0  0  0  0  0  0  0
    2.2387    2.4697    1.6541 H   0  0  0  0  0  0  0  0  0  0  0  0
    3.5332    0.4002   -1.4260 H   0  0  0  0  0  0  0  0  0  0  0  0
    1.7130    3.6034   -0.4556 H   0  0  0  0  0  0  0  0  0  0  0  0
    1.4584    2.0621   -1.2728 H   0  0  0  0  0  0  0  0  0  0  0  0
   -5.0169   -0.4431    1.3665 H   0  0  0  0  0  0  0  0  0  0  0  0
   -4.7195    0.8052    2.5549 H   0  0  0  0  0  0  0  0  0  0  0  0
    4.0289    3.1140   -0.0535 H   0  0  0  0  0  0  0  0  0  0  0  0
    3.7190    2.8553   -1.7727 H   0  0  0  0  0  0  0  0  0  0  0  0
   -2.0477   -4.3403    0.3910 H   0  0  0  0  0  0  0  0  0  0  0  0
   -1.2495   -4.8309   -0.9460 H   0  0  0  0  0  0  0  0  0  0  0  0
    1.8888   -4.6465   -1.1656 H   0  0  0  0  0  0  0  0  0  0  0  0
    2.7882   -4.0707    0.0690 H   0  0  0  0  0  0  0  0  0  0  0  0
    1.2947   -3.0532    2.6442 H   0  0  0  0  0  0  0  0  0  0  0  0
    5.7549    1.3140   -1.8271 H   0  0  0  0  0  0  0  0  0  0  0  0
   -4.6091    3.7220    0.2412 H   0  0  0  0  0  0  0  0  0  0  0  0
   -4.8085    3.2554    1.9181 H   0  0  0  0  0  0  0  0  0  0  0  0
   -3.2672    2.9496    1.1143 H   0  0  0  0  0  0  0  0  0  0  0  0
   -6.2362    0.3008   -1.1893 H   0  0  0  0  0  0  0  0  0  0  0  0
   -0.0428    2.8625    1.1895 H   0  0  0  0  0  0  0  0  0  0  0  0
    0.1219    1.5077    2.0868 H   0  0  0  0  0  0  0  0  0  0  0  0
   -2.2885    2.4804   -1.5289 H   0  0  0  0  0  0  0  0  0  0  0  0
   -6.6086    1.8611    1.4483 H   0  0  0  0  0  0  0  0  0  0  0  0
    7.0757   -0.5850   -0.9709 H   0  0  0  0  0  0  0  0  0  0  0  0
    5.4634   -1.1491   -1.3939 H   0  0  0  0  0  0  0  0  0  0  0  0
    5.8904   -0.9029    0.3034 H   0  0  0  0  0  0  0  0  0  0  0  0
    6.1780    1.3051    1.0927 H   0  0  0  0  0  0  0  0  0  0  0  0
   -4.2072   -0.0688   -3.3068 H   0  0  0  0  0  0  0  0  0  0  0  0
   -5.5353    1.1199   -3.3351 H   0  0  0  0  0  0  0  0  0  0  0  0
   -5.8757   -0.6096   -3.3158 H   0  0  0  0  0  0  0  0  0  0  0  0
    7.5402    2.6380   -1.1763 H   0  0  0  0  0  0  0  0  0  0  0  0
    8.1775    1.2407   -0.2670 H   0  0  0  0  0  0  0  0  0  0  0  0
    7.9558    2.7979    0.5264 H   0  0  0  0  0  0  0  0  0  0  0  0
  1 13  1  0  0  0  0
  1 19  1  0  0  0  0
  2 14  1  0  0  0  0
  2 22  1  0  0  0  0
  3 15  1  0  0  0  0
  3 57  1  0  0  0  0
  4 19  1  0  0  0  0
  4 27  1  0  0  0  0
  5 22  1  0  0  0  0
  5 25  1  0  0  0  0
  6 21  1  0  0  0  0
  6 65  1  0  0  0  0
  7 23  1  0  0  0  0
  7 66  1  0  0  0  0
  8 16  1  0  0  0  0
  8 53  1  0  0  0  0
  8 54  1  0  0  0  0
  9 17  1  0  0  0  0
  9 55  1  0  0  0  0
  9 56  1  0  0  0  0
 10 20  1  0  0  0  0
 10 32  1  0  0  0  0
 10 62  1  0  0  0  0
 11 24  1  0  0  0  0
 11 63  1  0  0  0  0
 11 64  1  0  0  0  0
 12 29  1  0  0  0  0
 12 33  1  0  0  0  0
 12 70  1  0  0  0  0
 13 15  1  0  0  0  0
 13 16  1  0  0  0  0
 13 34  1  0  0  0  0
 14 15  1  0  0  0  0
 14 17  1  0  0  0  0
 14 35  1  0  0  0  0
 15 36  1  0  0  0  0
 16 18  1  0  0  0  0
 16 37  1  0  0  0  0
 17 18  1  0  0  0  0
 17 38  1  0  0  0  0
 18 39  1  0  0  0  0
 18 40  1  0  0  0  0
 19 21  1  0  0  0  0
 19 41  1  0  0  0  0
 20 21  1  0  0  0  0
 20 23  1  0  0  0  0
 20 42  1  0  0  0  0
 21 43  1  0  0  0  0
 22 24  1  0  0  0  0
 22 44  1  0  0  0  0
 23 27  1  0  0  0  0
 23 30  1  0  0  0  0
 24 26  1  0  0  0  0
 24 45  1  0  0  0  0
 25 28  1  0  0  0  0
 25 29  1  0  0  0  0
 25 46  1  0  0  0  0
 26 28  1  0  0  0  0
 26 47  1  0  0  0  0
 26 48  1  0  0  0  0
 27 49  1  0  0  0  0
 27 50  1  0  0  0  0
 28 51  1  0  0  0  0
 28 52  1  0  0  0  0
 29 31  1  0  0  0  0
 29 58  1  0  0  0  0
 30 59  1  0  0  0  0
 30 60  1  0  0  0  0
 30 61  1  0  0  0  0
 31 67  1  0  0  0  0
 31 68  1  0  0  0  0
 31 69  1  0  0  0  0
 32 71  1  0  0  0  0
 32 72  1  0  0  0  0
 32 73  1  0  0  0  0
 33 74  1  0  0  0  0
 33 75  1  0  0  0  0
 33 76  1  0  0  0  0
M  END
> <PUBCHEM_COMPOUND_CID>
441305

> <PUBCHEM_CONFORMER_RMSD>
1

> <PUBCHEM_CONFORMER_DIVERSEORDER>
1
64
40
95
26
12
43
59
24
61
19
54
42
47
71
82
85
67
74
60
75
101
58
87
90
68
78
96
62
99
51
14
52
80
37
48
98
33
79
100
81
66
25
70
63
21
32
50
84
3
97
41
72
77
15
36
20
7
49
57
10
35
34
92
89
86
11
27
69
22
4
55
13
56
73
83
6
65
18
16
45
88
44
5
2
39
8
23
76
91
9
30
38
94
28
93
17
46
29
53
31

> <PUBCHEM_MMFF94_PARTIAL_CHARGES>
39
1 -0.56
10 -0.9
11 -0.99
12 -0.9
13 0.28
14 0.28
15 0.28
16 0.27
17 0.27
19 0.56
2 -0.56
20 0.27
21 0.28
22 0.56
23 0.28
24 0.27
25 0.28
27 0.28
29 0.27
3 -0.68
32 0.27
33 0.27
4 -0.56
5 -0.56
53 0.36
54 0.36
55 0.36
56 0.36
57 0.4
6 -0.68
62 0.36
63 0.36
64 0.36
65 0.4
66 0.4
7 -0.68
70 0.36
8 -0.99
9 -0.99

> <PUBCHEM_EFFECTIVE_ROTOR_COUNT>
10.6

> <PUBCHEM_PHARMACOPHORE_FEATURES>
23
1 1 acceptor
1 10 cation
1 10 donor
1 11 cation
1 11 donor
1 12 cation
1 12 donor
1 2 acceptor
1 3 acceptor
1 3 donor
1 4 acceptor
1 5 acceptor
1 6 acceptor
1 6 donor
1 7 acceptor
1 7 donor
1 8 cation
1 8 donor
1 9 cation
1 9 donor
6 13 14 15 16 17 18 rings
6 4 19 20 21 23 27 rings
6 5 22 24 25 26 28 rings

> <PUBCHEM_HEAVY_ATOM_COUNT>
33

> <PUBCHEM_ATOM_DEF_STEREO_COUNT>
12

> <PUBCHEM_ATOM_UDEF_STEREO_COUNT>
1

> <PUBCHEM_BOND_DEF_STEREO_COUNT>
0

> <PUBCHEM_BOND_UDEF_STEREO_COUNT>
0

> <PUBCHEM_ISOTOPIC_ATOM_COUNT>
0

> <PUBCHEM_COMPONENT_COUNT>
1

> <PUBCHEM_CACTVS_TAUTO_COUNT>
1

> <PUBCHEM_CONFORMER_ID>
0006BBD900000001

> <PUBCHEM_MMFF94_ENERGY>
74.2258

> <PUBCHEM_FEATURE_SELFOVERLAP>
116.831

> <PUBCHEM_SHAPE_FINGERPRINT>
10165383 225 18410298016592359073
10483366 6 18196951980732872830
105312 117 18412270566211512358
10675989 125 18411141304141634374
107951 10 17968101962315061786
11513181 2 18057606460448022909
11763715 3 16966344855348196982
12788726 201 17543056235776909571
13103583 49 11746937560194637469
13257819 101 17386273338114387655
14251751 93 18264490753230420642
14713325 29 18267028447279017882
14790565 3 18340778022598446960
14856354 85 16009320902067439296
15183329 4 16486980574470225092
15439362 3 18268998596227444346
17492 54 18338501011262956335
18608769 82 18340212998449894451
20775438 99 16479331491361330431
21033648 144 18186798042205001719
21033648 29 16443627866685533135
21033650 10 14404629745290564459
22393880 68 17489295383141162985
22907989 373 17905606962547605967
238 59 18336528448874608021
2838139 119 18341896268751728908
3298306 158 18408327674501240028
340366 18 18115031934565352316
3411729 13 18336271119956226233
3459 83 18130233653523804806
350125 39 18268155446596982162
38695281 34 18342183241075731246
4015057 19 17488180581430158264
4098825 35 15410896309655792785
474 4 18340204086292346379
484989 97 18124024900393335135
5265222 85 18121237608636917356
59755656 520 18411138052229003263
6669772 16 18410862032009081726
7226269 152 18343308093586093168

> <PUBCHEM_SHAPE_MULTIPOLES>
613.13
14.05
4.33
1.66
7.99
3.99
0.43
-13.39
3.57
0.89
-0.23
-2.17
0.27
-0.72

> <PUBCHEM_SHAPE_SELFOVERLAP>
1249.649

> <PUBCHEM_SHAPE_VOLUME>
351.3

> <PUBCHEM_COORDINATE_TYPE>
2
5
10

$$$$
