45102760
  -OEChem-08262413233D

 53 55  0     1  0  0  0  0  0999 V2000
    0.2531    0.9342   -1.9316 O   0  0  0  0  0  0  0  0  0  0  0  0
   -2.0924    1.6666   -0.6714 N   0  0  0  0  0  0  0  0  0  0  0  0
    0.8895   -0.1933    0.0250 N   0  0  0  0  0  0  0  0  0  0  0  0
   -5.4273   -2.4216    0.5866 N   0  0  0  0  0  0  0  0  0  0  0  0
   -7.3387   -3.6466    1.0538 N   0  0  0  0  0  0  0  0  0  0  0  0
   -6.1145   -4.2896   -0.7582 N   0  0  0  0  0  0  0  0  0  0  0  0
   -1.4154    0.4552   -0.2589 C   0  0  1  0  0  0  0  0  0  0  0  0
   -2.2363   -0.7773   -0.6612 C   0  0  0  0  0  0  0  0  0  0  0  0
   -3.4700   -1.0270    0.2154 C   0  0  0  0  0  0  0  0  0  0  0  0
   -0.0021    0.4378   -0.8379 C   0  0  0  0  0  0  0  0  0  0  0  0
   -4.2651   -2.2291   -0.2823 C   0  0  0  0  0  0  0  0  0  0  0  0
   -1.8555    2.9064   -0.1047 C   0  0  0  0  0  0  0  0  0  0  0  0
    2.2763   -0.4007   -0.1662 C   0  0  0  0  0  0  0  0  0  0  0  0
    4.4004   -1.2762    0.6339 C   0  0  0  0  0  0  0  0  0  0  0  0
    3.0235   -1.0618    0.8090 C   0  0  0  0  0  0  0  0  0  0  0  0
    5.0282   -0.8135   -0.5471 C   0  0  0  0  0  0  0  0  0  0  0  0
    2.8937    0.0544   -1.3276 C   0  0  0  0  0  0  0  0  0  0  0  0
   -2.5513    4.0261   -0.5605 C   0  0  0  0  0  0  0  0  0  0  0  0
   -0.9207    3.0365    0.9223 C   0  0  0  0  0  0  0  0  0  0  0  0
    4.2606   -0.1499   -1.5181 C   0  0  0  0  0  0  0  0  0  0  0  0
    5.1679   -1.9396    1.6050 C   0  0  0  0  0  0  0  0  0  0  0  0
    6.4051   -1.0277   -0.7221 C   0  0  0  0  0  0  0  0  0  0  0  0
   -2.3122    5.2760    0.0107 C   0  0  0  0  0  0  0  0  0  0  0  0
   -0.6818    4.2863    1.4936 C   0  0  0  0  0  0  0  0  0  0  0  0
    6.5348   -2.1439    1.4146 C   0  0  0  0  0  0  0  0  0  0  0  0
    7.1522   -1.6887    0.2533 C   0  0  0  0  0  0  0  0  0  0  0  0
   -1.3775    5.4062    1.0378 C   0  0  0  0  0  0  0  0  0  0  0  0
   -6.2247   -3.3992    0.2867 C   0  0  0  0  0  0  0  0  0  0  0  0
   -1.3538    0.4196    0.8363 H   0  0  0  0  0  0  0  0  0  0  0  0
   -1.5948   -1.6671   -0.6108 H   0  0  0  0  0  0  0  0  0  0  0  0
   -2.5445   -0.6882   -1.7115 H   0  0  0  0  0  0  0  0  0  0  0  0
   -3.1591   -1.1921    1.2543 H   0  0  0  0  0  0  0  0  0  0  0  0
   -4.1137   -0.1389    0.2163 H   0  0  0  0  0  0  0  0  0  0  0  0
   -2.7250    1.6228   -1.4630 H   0  0  0  0  0  0  0  0  0  0  0  0
   -3.6251   -3.1195   -0.2642 H   0  0  0  0  0  0  0  0  0  0  0  0
   -4.5870   -2.0461   -1.3147 H   0  0  0  0  0  0  0  0  0  0  0  0
    0.5199   -0.5625    0.8982 H   0  0  0  0  0  0  0  0  0  0  0  0
    2.5321   -1.4145    1.7147 H   0  0  0  0  0  0  0  0  0  0  0  0
    2.3844    0.5742   -2.1265 H   0  0  0  0  0  0  0  0  0  0  0  0
   -3.2826    3.9391   -1.3601 H   0  0  0  0  0  0  0  0  0  0  0  0
   -0.3466    2.2052    1.3161 H   0  0  0  0  0  0  0  0  0  0  0  0
    4.7237    0.2140   -2.4332 H   0  0  0  0  0  0  0  0  0  0  0  0
    4.7065   -2.3039    2.5205 H   0  0  0  0  0  0  0  0  0  0  0  0
    6.9086   -0.6805   -1.6220 H   0  0  0  0  0  0  0  0  0  0  0  0
   -2.8539    6.1480   -0.3442 H   0  0  0  0  0  0  0  0  0  0  0  0
    0.0467    4.3888    2.2928 H   0  0  0  0  0  0  0  0  0  0  0  0
    7.1171   -2.6584    2.1735 H   0  0  0  0  0  0  0  0  0  0  0  0
    8.2164   -1.8481    0.1056 H   0  0  0  0  0  0  0  0  0  0  0  0
   -1.1911    6.3794    1.4824 H   0  0  0  0  0  0  0  0  0  0  0  0
   -7.9745   -4.4061    0.8361 H   0  0  0  0  0  0  0  0  0  0  0  0
   -7.5559   -3.0735    1.8619 H   0  0  0  0  0  0  0  0  0  0  0  0
   -6.8039   -5.0206   -0.8966 H   0  0  0  0  0  0  0  0  0  0  0  0
   -5.3496   -4.2522   -1.4225 H   0  0  0  0  0  0  0  0  0  0  0  0
  1 10  2  0  0  0  0
  2  7  1  0  0  0  0
  2 12  1  0  0  0  0
  2 34  1  0  0  0  0
  3 10  1  0  0  0  0
  3 13  1  0  0  0  0
  3 37  1  0  0  0  0
  4 11  1  0  0  0  0
  4 28  2  0  0  0  0
  5 28  1  0  0  0  0
  5 50  1  0  0  0  0
  5 51  1  0  0  0  0
  6 28  1  0  0  0  0
  6 52  1  0  0  0  0
  6 53  1  0  0  0  0
  7  8  1  0  0  0  0
  7 10  1  0  0  0  0
  7 29  1  0  0  0  0
  8  9  1  0  0  0  0
  8 30  1  0  0  0  0
  8 31  1  0  0  0  0
  9 11  1  0  0  0  0
  9 32  1  0  0  0  0
  9 33  1  0  0  0  0
 11 35  1  0  0  0  0
 11 36  1  0  0  0  0
 12 18  2  0  0  0  0
 12 19  1  0  0  0  0
 13 15  2  0  0  0  0
 13 17  1  0  0  0  0
 14 15  1  0  0  0  0
 14 16  1  0  0  0  0
 14 21  2  0  0  0  0
 15 38  1  0  0  0  0
 16 20  1  0  0  0  0
 16 22  2  0  0  0  0
 17 20  2  0  0  0  0
 17 39  1  0  0  0  0
 18 23  1  0  0  0  0
 18 40  1  0  0  0  0
 19 24  2  0  0  0  0
 19 41  1  0  0  0  0
 20 42  1  0  0  0  0
 21 25  1  0  0  0  0
 21 43  1  0  0  0  0
 22 26  1  0  0  0  0
 22 44  1  0  0  0  0
 23 27  2  0  0  0  0
 23 45  1  0  0  0  0
 24 27  1  0  0  0  0
 24 46  1  0  0  0  0
 25 26  2  0  0  0  0
 25 47  1  0  0  0  0
 26 48  1  0  0  0  0
 27 49  1  0  0  0  0
M  END
> <PUBCHEM_COMPOUND_CID>
45102760

> <PUBCHEM_CONFORMER_RMSD>
1.2

> <PUBCHEM_CONFORMER_DIVERSEORDER>
1
91
44
24
94
74
53
98
18
17
48
47
2
54
37
40
32
3
76
67
29
42
38
45
82
9
95
96
21
34
59
92
52
56
84
60
72
78
88
5
41
87
39
70
97
79
26
36
23
15
62
69
16
80
46
66
85
27
28
63
50
10
83
57
43
51
49
64
19
8
65
20
25
30
77
90
6
55
68
33
73
35
12
71
93
22
7
75
4
11
86
58
14
61
89
81
13
31

> <PUBCHEM_MMFF94_PARTIAL_CHARGES>
42
1 -0.57
10 0.57
11 0.25
12 0.1
13 0.12
15 -0.15
17 -0.15
18 -0.15
19 -0.15
2 -0.87
20 -0.15
21 -0.15
22 -0.15
23 -0.15
24 -0.15
25 -0.15
26 -0.15
27 -0.15
28 0.55
3 -0.55
34 0.4
37 0.37
38 0.15
39 0.15
4 -0.7
40 0.15
41 0.15
42 0.15
43 0.15
44 0.15
45 0.15
46 0.15
47 0.15
48 0.15
49 0.15
5 -0.85
50 0.4
51 0.4
52 0.4
53 0.4
6 -0.85
7 0.43

> <PUBCHEM_EFFECTIVE_ROTOR_COUNT>
9

> <PUBCHEM_PHARMACOPHORE_FEATURES>
10
1 1 acceptor
1 2 cation
1 2 donor
1 3 donor
1 5 donor
1 6 donor
4 4 5 6 28 cation
6 12 18 19 23 24 27 rings
6 13 14 15 16 17 20 rings
6 14 16 21 22 25 26 rings

> <PUBCHEM_HEAVY_ATOM_COUNT>
28

> <PUBCHEM_ATOM_DEF_STEREO_COUNT>
1

> <PUBCHEM_ATOM_UDEF_STEREO_COUNT>
0

> <PUBCHEM_BOND_DEF_STEREO_COUNT>
0

> <PUBCHEM_BOND_UDEF_STEREO_COUNT>
0

> <PUBCHEM_ISOTOPIC_ATOM_COUNT>
0

> <PUBCHEM_COMPONENT_COUNT>
1

> <PUBCHEM_CACTVS_TAUTO_COUNT>
4

> <PUBCHEM_CONFORMER_ID>
02B036A800000001

> <PUBCHEM_MMFF94_ENERGY>
92.4335

> <PUBCHEM_FEATURE_SELFOVERLAP>
50.829

> <PUBCHEM_SHAPE_FINGERPRINT>
10411042 1 18339361971980824975
10622 236 17677873674451214338
11062273 23 18200595783483494289
11297750 10 18262789800833033053
11411753 29 18060425686610203228
11763715 3 18337128837520424349
12107183 9 17471285159698621834
12342043 65 17130175051308377598
12788726 201 18336275586453344334
13248334 5 17761493995287067285
13540713 5 18041858229014378476
13583140 156 17559940032023394734
13631057 29 18261108565258798466
13692115 27 18271534195122616083
13955234 65 17690849278122332001
14068700 675 18333452057815049127
15347590 135 18264759034589961688
16990366 60 18191582167284558043
16992752 21 18410304626789199006
21130935 74 18191576468875760754
21315759 148 18201153244875218102
21639891 77 18409724063502444349
21796203 349 17976010805367604067
22956985 138 18194960979601815377
249999 5 17693098878849464577
32027 91 18121493824980044703
3418910 222 18411138057263377672
3504750 166 18190737531773985818
3627633 1 18411136927217097165
3886686 26 17689997834398844126
4058900 60 8285660722476634983
4144715 1 18127972997814453248
4409770 3 18263641771983975341
469060 322 18271261442406865371
497634 4 18114179679882796926
5028188 123 18264497179683729142
504843 32 17975127644174850141
5219985 9 18337396036658657015
57634706 229 17627524730781378656
6058803 2 18042976380773493940
6697151 62 18196916972586188375
6700243 42 17914365461705501868
77188 2 18339361997761645973
9896288 288 18268710506880291714
9981440 41 17628344974659966269

> <PUBCHEM_SHAPE_MULTIPOLES>
545.45
17.09
7.16
1.39
10.84
7.72
-0.01
-27
3.39
-19.2
2.46
1.17
0.17
-0.81

> <PUBCHEM_SHAPE_SELFOVERLAP>
1162.49

> <PUBCHEM_SHAPE_VOLUME>
300.7

> <PUBCHEM_COORDINATE_TYPE>
2
5
10

$$$$
